/*--------------------------------*- C++ -*----------------------------------*\
| =========                 |                                                 |
| \\      /  F ield         | OpenFOAM: The Open Source CFD Toolbox           |
|  \\    /   O peration     | Version:  v2206                                 |
|   \\  /    A nd           | Website:  www.openfoam.com                      |
|    \\/     M anipulation  |                                                 |
\*---------------------------------------------------------------------------*/
FoamFile
{
    version     2.0;
    format      ascii;
    class       volScalarField;
    object      T;
}
// * * * * * * * * * * * * * * * * * * * * * * * * * * * * * * * * * * * * * //

dimensions      [0 0 0 1 0 0 0];

internalField   uniform 291.15;

boundaryField
{
    #includeEtc "caseDicts/setConstraintTypes"
    heatsink_to_air
    {
        type            compressible::turbulentTemperatureRadCoupledMixed;
        qrNbr           none;
        qr              none;
        Tnbr            T;
        kappaMethod     solidThermo;
        useImplicit     true;
        value           $internalField;
    }

    wallsheatsink
    {
	type	       zeroGradient;
    }

    heatsinkbottom
    {
        type            externalWallHeatFluxTemperature;
        kappaMethod     solidThermo;
        mode            flux;
        Ta              $internalField;
        q               uniform 3770.739065;//30165.91252;
        value           $internalField;
        kappaName       none;
    }
}

// ************************************************************************* //
