/*--------------------------------*- C++ -*----------------------------------*\
| =========                 |                                                 |
| \\      /  F ield         | OpenFOAM: The Open Source CFD Toolbox           |
|  \\    /   O peration     | Version:  v2206                                 |
|   \\  /    A nd           | Website:  www.openfoam.com                      |
|    \\/     M anipulation  |                                                 |
\*---------------------------------------------------------------------------*/
FoamFile
{
    version     2.0;
    format      ascii;
    class       volVectorField;
    object      U;
}
// * * * * * * * * * * * * * * * * * * * * * * * * * * * * * * * * * * * * * //

dimensions      [0 1 -1 0 0 0 0];

internalField   uniform (0 0 0);

boundaryField
{
    #includeEtc "caseDicts/setConstraintTypes"
    
    inlet
    {
        type            fixedValue;
        value           uniform (-8 0 0);        
        /*type             uniformFixedValue;
        uniformValue     table
        (
        	(0 (-5 0 0))
        	(101 (-5 0 0))
        	(201 (-6 0 0))
        	(301 (-6 0 0))
        	(401 (-7 0 0))
        	(501 (-7 0 0))
        	(601 (-8 0 0))
        	(701 (-8 0 0))
        	(801 (-9 0 0))
        	(901 (-9 0 0))
        	(1001 (-10 0 0))
        	(1101 (-10 0 0))
        	(1201 (-11 0 0))
        	(1301 (-11 0 0))
        	(1401 (-12 0 0))
        	(1501 (-12 0 0))
        );*/
    }

    outlet
    {
        type            inletOutlet;
        inletValue      $internalField;
        value           $internalField;
    }

    wallsair
    {
        type            slip;
    }

    air_to_heatsink
    {
        type            noSlip;
    }
}

// ************************************************************************* //
