/*--------------------------------*- C++ -*----------------------------------*\
| =========                 |                                                 |
| \\      /  F ield         | OpenFOAM: The Open Source CFD Toolbox           |
|  \\    /   O peration     | Version:  v2206                                 |
|   \\  /    A nd           | Website:  www.openfoam.com                      |
|    \\/     M anipulation  |                                                 |
\*---------------------------------------------------------------------------*/
FoamFile
{
    version     2.0;
    format      ascii;
    class       volScalarField;
    object      k;
}
// * * * * * * * * * * * * * * * * * * * * * * * * * * * * * * * * * * * * * //

dimensions      [0 2 -2 0 0 0 0];

internalField   uniform 0.30375;//0.00375;

boundaryField
{
    #includeEtc "caseDicts/setConstraintTypes"
    
    inlet
    {
        //type            turbulentIntensityKineticEnergyInlet;
        //intensity       0.015;
        //value           $internalField;
        type            fixedValue;
        value           $internalField;
    }
    
    wallsair
    {
        type            slip;
    }

    outlet
    {
        //type            fixedGradient;
        //gradient        uniform 0;
        type            inletOutlet;
        inletValue      $internalField;
        value           $internalField;
    }

    air_to_heatsink
    {
        type            kqRWallFunction;
        value           $internalField;
    }
}
// ************************************************************************* //
