/*--------------------------------*- C++ -*----------------------------------*\
| =========                 |                                                 |
| \\      /  F ield         | OpenFOAM: The Open Source CFD Toolbox           |
|  \\    /   O peration     | Version:  v2206                                 |
|   \\  /    A nd           | Website:  www.openfoam.com                      |
|    \\/     M anipulation  |                                                 |
\*---------------------------------------------------------------------------*/
FoamFile
{
    version     2.0;
    format      ascii;
    class       dictionary;
    location    "system";
    object      decomposeParDict;
}
// * * * * * * * * * * * * * * * * * * * * * * * * * * * * * * * * * * * * * //

numberOfSubdomains 8;

//method  assembly;
method      scotch;

coeffs
{
    numberOfSubdomains 8;
    method      scotch;
    dataFile    "cellDecompose.dat";
}

constraints
{
    /*processors
    {
        type    singleProcessorFaceSets;
        sets
        (       (air_to_heatsink    -1) //these names are specefied in topoSetDict
                (heatsink_to_air    -1) //these names are specefied in topoSetDict
        );
        enabled true;
    }*/
}
// ************************************************************************* //
