/*--------------------------------*- C++ -*----------------------------------*\
| =========                 |                                                 |
| \\      /  F ield         | OpenFOAM: The Open Source CFD Toolbox           |
|  \\    /   O peration     | Version:  v2206                                 |
|   \\  /    A nd           | Website:  www.openfoam.com                      |
|    \\/     M anipulation  |                                                 |
\*---------------------------------------------------------------------------*/
FoamFile
{
    version     2.0;
    format      ascii;
    class       dictionary;
    object      decomposeParDict;
}
// * * * * * * * * * * * * * * * * * * * * * * * * * * * * * * * * * * * * * //

numberOfSubdomains  2;

method  scotch;

constraints
{
    /*processors
    {
        type    singleProcessorFaceSets;
        sets
        (       (air_to_heatsink    -1)
                (heatsink_to_air    -1)
        );
        enabled true;
    }
    patches
    {
        type    preservePatches; //set (".*") for all patches, & DONT USE COMMAS!
        patches (air_to_heatsink);
        enabled true;
    }*/
    faces
    {
        type    preserveFaceZones;
        zones   (air_to_heatsink, heatsink_to_air);
        enabled true;
    }
}
// ************************************************************************* //
