/*--------------------------------*- C++ -*----------------------------------*\
| =========                 |                                                 |
| \\      /  F ield         | OpenFOAM: The Open Source CFD Toolbox           |
|  \\    /   O peration     | Version:  v2206                                 |
|   \\  /    A nd           | Website:  www.openfoam.com                      |
|    \\/     M anipulation  |                                                 |
\*---------------------------------------------------------------------------*/
FoamFile
{
    version     2.0;
    format      ascii;
    class       volScalarField;
    object      epsilon;
}
// * * * * * * * * * * * * * * * * * * * * * * * * * * * * * * * * * * * * * //

dimensions      [0 2 -3 0 0 0 0];

internalField   uniform 68.41815;//0.01055;

boundaryField
{
    #includeEtc "caseDicts/setConstraintTypes"
    
    inlet
    {
        /*type            turbulentMixingLengthDissipationRateInlet;
        mixingLength    0.015;
        value           $internalField;*/
        type            fixedValue;
        value           $internalField;
        
    }

    wallsair
    {
        type            epsilonWallFunction;
        value           $internalField;
    }
    
    outlet
    {
        //type            fixedGradient;
        //gradient        uniform 0;
        type            inletOutlet;
        inletValue      $internalField;
        value           $internalField;
    }

    air_to_heatsink
    {
        type            epsilonWallFunction;
        value           $internalField;
    }
}

// ************************************************************************* //
