/*--------------------------------*- C++ -*----------------------------------*\
| =========                 |                                                 |
| \\      /  F ield         | OpenFOAM: The Open Source CFD Toolbox           |
|  \\    /   O peration     | Version:  v2206                                 |
|   \\  /    A nd           | Website:  www.openfoam.com                      |
|    \\/     M anipulation  |                                                 |
\*---------------------------------------------------------------------------*/
FoamFile
{
    version     2.0;
    format      ascii;
    class       volScalarField;
    object      alphat;
}
// * * * * * * * * * * * * * * * * * * * * * * * * * * * * * * * * * * * * * //

dimensions      [1 -1 -1 0 0 0 0];

internalField   uniform 0;

boundaryField
{
    #includeEtc "caseDicts/setConstraintTypes"
    UpperWall
    {
        type            compressible::alphatWallFunction;
        value           uniform 0;
    }
    
    LowerWall
    {
        type            compressible::alphatWallFunction;
        value           uniform 0;
    }

    heatSink
    {
        type            compressible::alphatWallFunction;
        value           uniform 0;
    }

    "R.*"
    {
        type            compressible::alphatWallFunction;
        value           uniform 0;
    }

    SideWall
    {
        type            calculated;
        value           $internalField;
    }

    air_to_heatSink
    {
        type            compressible::alphatWallFunction;
        Prt             0.85;
        value           uniform 0;
    }
}

// ************************************************************************* //
